256

C 5.582569 2.038336 5.332609
C 3.368348 1.675704 1.352944
C 5.280070 0.107792 4.954070
C 1.452850 5.099760 0.961697
C 4.516477 4.750056 5.843765
C 5.294230 0.880753 0.709709
C 3.632480 5.459780 2.706370
C 5.193260 0.310286 1.785460
C 0.951866 2.803210 6.212830
C 2.468290 0.949321 0.069622
C 2.713060 2.349110 5.479630
C 2.092740 2.951710 6.688500
C 2.865291 6.485433 3.807382
C 3.006633 2.093604 6.622955
C 2.724840 3.631880 1.520430
C 5.589660 4.619180 5.830490
C 0.700154 6.595620 6.280490
C 2.078990 4.046990 4.092440
C 0.104433 2.561240 1.166880
C 1.892210 2.927760 1.362100
C 1.402630 2.428410 3.224710
C 4.291600 3.938960 4.291660
C 5.352089 3.180077 5.202375
C 0.493965 5.448830 5.600040
C 0.092489 6.080490 1.244380
C 0.286537 0.324361 4.144260
C 4.926980 5.986270 1.433290
C 1.711470 1.589860 4.236970
C 1.839380 1.913768 6.403272
C 1.332650 3.795610 4.905110
C 3.435317 3.202297 4.483390
C 0.074958 5.191799 0.422766
C 0.537067 1.612030 0.039833
C 3.476850 4.204290 5.106330
C 1.123240 0.174478 2.480290
C 2.235560 0.340048 2.807320
C 4.535970 0.090909 0.907102
C 5.527580 5.460830 2.913070
C 3.636439 0.789004 2.156781
C 0.050638 2.520160 0.111155
C 6.481097 6.335133 0.265596
C 0.428136 4.517200 6.411630
C 1.801230 5.069350 2.067280
C 2.780780 5.006920 2.225780
C 3.343660 0.888513 0.559586
C 1.836360 2.020520 1.817970
C 4.030245 5.374341 1.756369
C 3.706390 1.149520 4.944780
C 2.157842 4.096180 5.825346
C 1.921480 5.010850 0.016000
C 1.005830 5.447990 6.477300
C 2.958580 3.306370 6.108140
C 3.778710 3.250320 1.657400
C 1.996940 5.574250 3.959830
C 4.242660 5.786570 0.424725
C 0.820797 2.738100 5.123740
C 5.365840 5.106060 1.847120
C 0.512626 0.592196 0.498060
C 2.043640 2.967650 2.449570
C 2.162570 6.455020 1.918300
C 1.843670 3.064360 5.597320
C 4.392320 2.786620 4.348370
C 0.241296 6.233560 2.283480
C 6.334500 5.273070 2.091700
C 6.032000 5.455470 6.436620
C 3.588080 6.614390 0.489043
C 4.506740 1.489530 4.294530
C 0.510673 6.236020 3.425970
C 5.597010 2.444860 1.369000
C 3.911400 6.579840 1.796870
C 4.645959 4.911190 2.592771
C 3.892060 6.137790 3.437390
C 6.133400 3.335640 1.608490
C 1.340433 3.746266 6.425588
C 1.060070 1.042120 3.392210
C 3.137242 3.177558 0.521889
C 5.522180 2.934060 6.192670
C 6.392964 0.543645 4.853640
C 6.325700 0.443433 1.048780
C 4.468740 6.188910 4.350500
C 6.080900 4.426980 0.193358
C 1.010150 3.321600 2.417690
C 0.947239 4.287730 3.991110
C 2.495190 4.867960 1.175920
C 4.254640 0.938303 6.113040
C 3.070135 5.902816 1.588297
C 2.733150 2.060530 3.347510
C 4.898630 1.989960 0.690190
C 2.935090 5.036110 6.293970
C 0.695990 1.750990 5.726150
C 0.686322 4.298300 0.788696
C 4.298287 0.163927 5.237865
C 3.215207 5.612955 0.536833
C 4.329810 1.163200 1.230860
C 4.485170 4.299750 1.785470
C 5.640740 0.530875 2.982340
C 5.834870 6.262160 1.974900
C 1.676170 6.543040 6.531900
C 1.069510 2.227120 0.966559
C 2.501340 5.864590 2.714430
C 5.889740 3.102210 0.449988
C 4.211180 1.136270 3.318050
C 6.098138 1.636892 0.769114
C 3.140350 1.105620 3.240300
C 6.372250 2.403640 4.550110
C 1.086370 3.204260 0.684298
C 0.591779 4.950730 1.762150
C 1.631850 0.976865 1.799500
C 5.078410 3.357160 1.552540
C 4.570510 0.021680 6.600100
C 5.628350 1.352490 1.774040
C 5.387309 4.232150 1.087509
C 6.456060 4.405020 1.280970
C 0.402393 2.151200 3.098370
C 2.984600 5.237710 3.672380
C 2.719700 6.187370 6.509160
C 1.398490 3.131010 4.126020
C 1.669940 3.664880 3.129960
C 2.944278 2.641905 1.773301
C 4.303650 2.801100 2.527090
C 6.183480 6.319100 3.002400
C 5.708036 5.448694 0.658091
C 0.137977 0.516161 3.000700
C 2.324970 0.233892 5.525000
C 2.904160 0.184579 1.157410
C 2.697720 3.413780 3.688880
C 0.439415 3.434700 1.524030
C 6.261860 1.413270 2.891800
C 4.466660 0.330373 2.756320
C 0.695879 2.377070 1.973690
C 0.603717 2.003640 4.144570
C 6.363450 0.505406 2.092770
C 2.654862 5.106231 4.717433
C 3.486850 4.338290 1.330290
C 0.796185 0.293398 1.517871
C 4.346730 2.118050 1.707380
C 0.043812 4.115530 2.279140
C 1.479030 1.200870 0.467351
C 0.896621 6.283630 0.578311
C 4.331884 3.904076 0.758556
C 1.877730 1.473990 2.885650
C 6.187210 1.412410 3.972490
C 1.835046 0.260524 0.733465
C 3.214120 4.257340 4.118220
C 6.244240 3.612960 3.299290
C 0.483870 5.179070 2.816090
C 0.947400 5.268088 3.810041
C 2.619754 2.255764 0.932049
C 4.582030 5.366700 3.602410
C 3.637682 2.127509 4.027486
C 6.677950 3.405810 4.295060
C 6.627120 5.456980 3.735700
C 5.029920 4.493070 0.176409
C 3.171970 3.082960 2.776090
C 2.625030 4.042230 2.729670
C 6.026380 4.952170 4.771190
C 4.019049 4.518455 3.383799
C 4.878710 3.923580 3.050250
C 5.696310 4.076250 2.201480
C 5.052790 6.372030 3.347100
C 0.661831 1.235715 2.406988
C 6.032080 2.474070 3.299440
C 5.455570 6.540980 0.673790
C 4.699280 1.193290 2.363690
C 2.701110 1.461580 2.218860
C 2.200570 5.255650 5.638430
C 2.342220 0.626131 3.762890
C 4.649190 5.979030 2.473590
C 4.050980 1.663680 0.135631
C 0.588596 4.067770 3.095570
C 0.626256 1.075480 4.810990
C 6.507540 1.541150 5.189290
C 3.404168 0.195276 5.939816
C 2.111060 2.628760 4.607990
C 1.607430 6.564220 3.458410
C 5.551620 4.815930 3.721410
C 4.952280 5.141260 4.762950
C 6.254880 4.643090 3.000120
C 4.021720 2.575310 0.801908
C 3.726970 0.373063 3.901940
C 1.724500 1.923710 5.314360
C 5.672280 5.900310 5.254580
C 6.589750 6.109150 4.680760
C 3.876390 5.082520 4.389700
C 5.922670 0.245190 3.978800
C 2.952100 0.299492 4.657220
C 2.030590 6.399110 4.579640
C 1.380575 5.835674 2.806680
C 5.568879 3.145692 2.604783
C 2.658740 1.449180 4.746520
C 3.745770 4.003350 2.452360
C 4.691060 4.997510 0.931877
C 2.458710 1.197250 1.080670
C 5.537500 1.058230 4.724090
C 1.251930 4.617870 5.752770
C 4.904140 0.482925 4.024010
C 1.446560 5.977570 5.683500
C 0.349446 1.469690 1.185020
C 6.699770 3.078600 2.569700
C 5.285490 1.342120 3.344220
C 5.388432 1.988210 4.191398
C 5.169182 2.114387 2.419941
C 1.301750 0.345838 4.355590
C 1.181530 0.879740 6.242760
C 5.526110 5.970380 4.197320
C 5.606510 3.872700 4.107100
C 3.268490 6.595490 2.744320
C 1.424620 3.987870 1.779620
C 6.504640 2.538420 5.649880
C 5.150540 4.141920 5.042630
C 3.572860 1.921690 2.503080
C 1.899360 4.009670 0.809531
C 6.424050 2.130310 2.105270
C 4.125500 3.335690 5.236200
C 5.025550 1.861450 6.363160
C 3.684697 2.380000 5.022118
C 0.517320 3.558030 5.717130
C 1.210250 6.011730 1.706280
C 6.597700 4.420350 3.978220
C 0.530503 4.586560 4.953090
C 3.495020 6.061310 4.624600
C 2.768900 6.035110 5.448010
C 4.663870 1.611420 5.445810
C 6.251000 3.824470 5.217690
C 6.291510 3.704182 6.232479
C 1.084716 6.000161 4.637079
C 1.584250 5.100070 4.848700
C 2.653900 3.584920 5.019980
C 0.193008 0.832053 5.905720
C 2.515110 1.269490 5.762090
C 4.893670 3.784290 6.036810
C 5.375100 0.852737 5.801590
C 5.016239 5.643746 6.502916
C 5.466280 6.555040 6.079180
C 5.209263 3.045330 3.768321
C 3.884201 2.765106 6.398883
C 1.536060 0.910885 5.342450
C 4.620020 2.232510 3.403710
C 3.591030 1.713210 5.803610
C 6.521569 6.254028 5.972164
C 6.164560 0.678251 6.634630
C 4.035604 3.286720 3.494457
C 2.790420 4.185640 0.042862
C 3.928700 4.818700 6.683450
C 3.831018 3.828941 6.583035
C 4.673950 2.572470 5.672570
C 4.800160 3.120630 0.225396
C 0.754272 0.121899 5.256450
C 4.623440 5.931150 5.520270
C 0.559878 3.066740 3.415990
C 1.942770 4.821020 3.190380
C 2.019506 5.992168 0.676347
C 0.112621 3.577960 0.348848
C 6.053900 1.786360 6.227180
C 3.528590 5.328750 5.346840
C 3.808750 5.938610 6.268440